<?xml version="1.0" encoding="utf-8"?>


<android.support.design.widget.CoordinatorLayout xmlns:app="http://schemas.android.com/apk/res-auto"
    xmlns:android="http://schemas.android.com/apk/res/android"
    xmlns:tools="http://schemas.android.com/tools"
    android:id="@+id/coordinatorLayout2"
    android:layout_width="match_parent"
    android:layout_height="match_parent"


    tools:context=".ExploreRoutes">


        <android.support.design.widget.AppBarLayout
            android:id="@+id/appBarLayout"
            android:layout_width="match_parent"
            android:layout_height="wrap_content"
            android:theme="@style/ThemeOverlay.AppCompat.Dark">

            <android.support.v7.widget.Toolbar
                android:id="@+id/toolbar"
                android:layout_width="match_parent"
                android:layout_height="?attr/actionBarSize"
                android:background="?attr/colorPrimary"
                app:popupTheme="@style/AppTheme.PopupOverlay">

            </android.support.v7.widget.Toolbar>


            <net.yanzm.mth.MaterialTabHost
                android:id="@android:id/tabhost"
                android:layout_width="match_parent"
                android:layout_height="wrap_content"

                >

            </net.yanzm.mth.MaterialTabHost>

        </android.support.design.widget.AppBarLayout>

        <android.support.v4.view.ViewPager
            android:id="@+id/view_pager"
            android:layout_width="wrap_content"
            android:layout_height="wrap_content"
            app:layout_behavior="@string/appbar_scrolling_view_behavior"
            />


    </android.support.design.widget.CoordinatorLayout>
